curent/WECC_VSC_new_out.txt
ANDES 0.6.0.post0.dev0+ge796a5a
Copyright (C) 2015-2018 Hantao Cui

ANDES comes with ABSOLUTELY NO WARRANTY
Use this software AT YOUR OWN RISK

Case file: WECC_VSC_new.dm
report Time: 10/03/2018 11:17:34 AM

Power flow method: NR
Number of iterations: 0.0
Flat-start: No

SUMMARY:
Buses                    191
Generators                31
Committed Gens             3
Loads                    104
Shunts                    65
Lines                    325
Transformers              51
Areas                      0

EXTENDED SUMMARY:
                      P (pu)        Q (pu)

Generation               627         105.5
Load                   608.9         153.5
Shunt Inj                  0         29.95
Losses                 10.59        -18.05
Line Charging             41         161.6

BUS DATA:
                      Vm(pu)       Va(deg)       Pg (pu)       Qg (pu)       Pl (pu)       Ql (pu)

1.0-CORONADO          0.9947       -0.5805     3.553e-15    -2.998e-14          17.5         -0.56
2.0-CHOLLA             1.031         8.015    -3.169e-15    -3.004e-14             0             0
3.0-CORONADO           1.011         6.016             8        -1.389             1             0
4.0-CRAIG              1.014         28.36     7.105e-15    -3.997e-15          23.5         -1.27
5.0-CRAIG              1.017         34.89         10.48         0.827             1             0
6.0-FOURCORN            1.13         11.08      1.06e-14     3.308e-14             0         1.443
7.0-FOURCORN           1.051         13.51    -5.107e-14     4.663e-15          2.39         1.152
8.0-FCNGN4CC           1.019         20.03          21.6        -4.305             1             0
9.0-FOURCORN           1.049         13.01    -4.441e-15     4.047e-14         1.397         0.238
10.0-HAYDEN                1         45.13          20.5         1.965             1             0
11.0-NAVAJO            1.153         1.208     1.998e-15    -6.395e-14        0.9888         3.295
12.0-NAVAJO 2          1.081         6.474          16.9         2.882             1             0
13.0-MOENKOPI          1.155        0.2714    -2.828e-15     2.576e-14             0         5.215
14.0-PALOVRD2          1.039         2.445          26.4         4.887             1             0
15.0-PALOVRDE           1.13        -4.342    -1.599e-14     5.262e-14         8.371         4.048
16.0-SAN JUAN          1.065          14.2    -2.487e-14     6.839e-14           8.4         -4.37
17.0-SJUAN G4           1.01         17.07          9.62        -1.506             1             0
18.0-WESTWING          1.138        -4.238     5.329e-15     3.197e-14         6.607         4.794
19.0-NAVAJO1           1.143          2.27    -2.623e-15     4.053e-14             0             0
20.0-NAVAJO2           1.155       -0.7749     1.692e-15     4.924e-14             0             0
21.0-NAVAJO3           1.125         2.958    -1.617e-15     1.192e-14             0             0
22.0-NAVAJO4           1.106        -6.029     3.031e-16    -1.584e-14             0             0
23.0-MOENKOPI          1.144         1.664      4.36e-16     -3.25e-14             0             0
24.0-MOENKOP2          1.121        -5.671    -1.167e-15     -3.19e-14             0             0
25.0-MOENKOP3          1.152         6.828    -3.081e-15     2.975e-14             0        -1.327
26.0-MOENKOP4          1.018        -13.67     4.711e-17    -7.459e-15             0             0
27.0-FOURCOR1          1.116         12.68     3.386e-15    -1.956e-14             0             0
28.0-FOURCOR2          1.129        -3.888     3.089e-15     1.587e-14             0             0
29.0-CANAD G1          1.055         14.07          44.5         10.48             1             0
30.0-CANADA            1.094         10.67    -5.684e-14     6.093e-13            44            10
31.0-CANALB            1.039         38.73    -7.994e-15     3.553e-15             0         6.482
32.0-CA230TO          0.9985          43.4     1.377e-14     1.688e-14             0        -5.982
33.0-CA230             1.004         52.34     7.105e-15    -2.665e-14            36             7
34.0-CMAIN GM           1.02         57.25          44.8         10.17             1             0
35.0-BRIDGER2          1.061         6.847          16.4         2.635             1             0
36.0-ADELANTO          1.066         -12.9     -6.04e-14    -6.555e-13        -18.62       -0.6598
37.0-ADELAN&1           1.08        -14.05    -2.236e-14    -8.933e-14             0             0
38.0-CASTAIC           1.029        -13.79     7.164e-15    -1.681e-14             0             0
39.0-CASTAI4G          1.024        -12.49             2       -0.2123             1             0
40.0-GLENDAL           1.029        -18.66     9.326e-15      5.64e-14          1.35        -0.789
41.0-HAYNES            1.036        -18.56      8.72e-15    -2.928e-15             0             0
42.0-HAYNES3G          1.005        -15.29          3.25        0.7154             1             0
43.0-INTERMT           1.066         4.759     7.105e-15    -1.119e-13         20.53         4.185
44.0-INTERM1G          1.061         9.302          17.8          4.89             1             0
45.0-OLIVE              1.03        -14.28    -9.104e-15    -1.599e-14        -0.728         -0.17
46.0-OWENS G           1.015        -13.93           1.1         0.295             1             0
47.0-RINALDI           1.029        -14.51    -2.043e-14     2.225e-13          1.21          0.25
48.0-RINALDI           1.073        -14.04     7.744e-15    -6.328e-15             0        0.9218
49.0-RIVER             1.028        -19.74     4.352e-14    -1.055e-14           3.2          0.65
50.0-STA B             1.039        -20.29     2.665e-15    -3.797e-14         2.372        -0.632
51.0-STA B1            1.044        -19.39     9.432e-15     1.633e-14             0             0
52.0-STA B2            1.044        -19.39     9.432e-15     1.633e-14             0             0
53.0-STA BLD           1.032        -20.26      3.02e-14    -3.547e-14          1.38          0.28
54.0-STA E             1.026        -17.69    -1.599e-14    -1.303e-13         8.078         1.321
55.0-STA E             1.047        -16.23    -1.429e-14     4.159e-15             0             0
56.0-STA F             1.029        -19.85    -7.128e-14    -1.499e-14          1.17          0.24
57.0-STA G             1.028        -18.97     4.596e-14     9.986e-14          1.21          0.25
58.0-STA J             1.026        -15.59      3.73e-14     2.825e-14         8.877        -0.062
59.0-SYLMARLA           1.03        -13.19    -1.066e-13    -2.278e-13        -42.71        -3.856
60.0-SYLMAR S          1.012        -14.71     2.309e-14      5.94e-14          4.01         0.806
61.0-VALLEY            1.026        -16.05    -1.377e-14    -7.444e-14         2.052         0.176
62.0-VICTORVL          1.059        -14.64    -3.775e-15    -9.548e-15         -1.29         1.532
63.0-VICTORVL          1.065        -13.44    -1.197e-13     2.153e-13             0             0
64.0-MONTA G1           1.08         34.28          29.1         -2.34             1        -11.66
65.0-MONTANA           1.139         27.13    -2.487e-14     1.519e-13         18.23         5.811
66.0-BIG EDDY          1.007         -22.6      2.22e-15    -3.331e-15           1.6        0.3125
67.0-BIG EDDY          1.006        -19.95    -6.128e-14     5.906e-14        -0.675        0.5874
68.0-BIG EDDY          1.054         -17.3    -5.274e-15    -4.291e-13        -0.442          0.22
69.0-DALLES21           1.03        -12.75         13.01         2.175             1        -5.304
70.0-CELILO                1        -20.69    -8.171e-14    -3.286e-14         47.65         21.06
71.0-CELILOCA          1.052         -17.5     5.796e-13    -2.116e-13             0        -1.107
72.0-COLSTRP            1.11         1.481     7.105e-15    -8.882e-15        -15.52         14.89
73.0-COULEE            1.115        -6.947     9.992e-16      7.55e-15             0         2.486
74.0-GARRISON          1.095        -19.95     7.105e-14     4.547e-13         25.84         -6.25
75.0-JOHN DAY          1.099        -13.38     1.421e-14     6.217e-14            32        -3.492
76.0-JOHN DAY          1.045     3.039e-14         65.58         19.83             1             0
77.0-HANFORD            1.14        -7.015             0             0         37.57        -14.11
78.0-NORTH G3          1.065         15.44          98.6         19.01             1             0
79.0-NORTH             1.114         2.774     7.105e-15     7.994e-14         51.33         2.864
80.0-BURNS             1.118        -16.05     2.554e-15     3.997e-15             0         2.751
81.0-GRIZZLY           1.119        -14.99     3.331e-14    -7.105e-15       -0.6894         7.438
82.0-MALIN             1.132        -17.79    -2.043e-14    -7.105e-15         -3.59        -3.823
83.0-MIDPOINT           1.12       -0.6966    -8.327e-17    -5.773e-15             0         2.758
84.0-MIDPOINT          1.052         3.209    -7.105e-15     2.309e-14           6.1         5.487
85.0-SUMMER L          1.122        -14.67     1.141e-14     7.115e-14             0             0
86.0-GRIZZLY1          1.128        -14.51     -1.58e-14    -2.904e-14             0             0
87.0-GRIZZLY2          1.119        -15.37    -3.805e-16    -1.638e-14             0             0
88.0-MALIN1            1.102        -12.19    -3.306e-15    -1.531e-14             0             0
89.0-MALIN2            1.129        -15.62    -3.457e-14    -1.236e-13             0             0
90.0-GRIZZLY3           1.15        -17.07     -1.26e-14    -1.322e-14             0             0
91.0-GRIZZLY4          1.124        -15.09    -7.712e-15     2.079e-15             0             0
92.0-GRIZZLY5          1.142         -17.4     3.872e-15    -1.213e-15             0             0
93.0-GRIZZLY6          1.132        -15.42     9.955e-15     2.854e-14             0             0
94.0-GRIZZLY7          1.149        -17.18    -2.228e-14     -4.44e-14             0             0
95.0-GRIZZLY8          1.124        -15.09     1.603e-14     2.876e-14             0             0
96.0-GRIZZLY9          1.142        -17.52    -3.868e-15     1.221e-15             0             0
97.0-GRIZZLYA          1.132        -15.43    -1.022e-14     7.368e-16             0             0
98.0-BURNS1            1.026         13.57    -8.551e-16     3.543e-15             0             0
99.0-CORTINA           1.036        -23.05     2.998e-15     6.661e-16        -0.433         1.274
100.0-COTWDPGE         1.134         -21.1    -1.821e-14    -5.551e-14         2.234       -0.8177
101.0-DIABLO            1.09         -22.8    -1.554e-14    -4.752e-14           0.5          0.25
102.0-DIABLO1          1.051        -19.38          7.65         1.512             1             0
103.0-GATES            1.073        -25.25     1.465e-14     2.864e-14          3.05        0.9713
104.0-GLENN            1.027         -23.2     9.437e-16    -8.882e-16         0.275         1.582
105.0-LOGAN CR         1.122        -23.95    -7.216e-16    -1.148e-15       0.08331             0
106.0-LOSBANOS         1.064        -26.15     1.821e-14     2.098e-14          2.65          0.14
107.0-MIDWAY           1.066        -24.57    -5.129e-14    -1.408e-13         0.556        0.4279
108.0-MIDWAY           1.128         -27.6     3.553e-15     1.421e-14         8.175         7.975
109.0-MOSSLAND         1.061        -26.41     5.163e-15    -1.568e-14           0.4         0.215
110.0-OLINDA           1.116        -22.05     2.887e-14     -1.11e-15        -1.944         1.877
111.0-ROUND MT         1.071        -7.828         10.57         8.226             1         7.166
112.0-ROUND MT         1.162        -17.09      2.22e-15      1.71e-14          1.65         1.687
113.0-ROUND MT         1.089        -20.28     2.981e-14    -6.439e-14             0         1.079
114.0-TABLE MT          1.07        -21.54    -1.998e-14    -5.329e-14        -0.007         2.227
115.0-TEVATR           1.012        -23.07          5.94       0.01174             1        -2.048
116.0-TEVATR           1.083        -27.33             0     1.288e-14          8.84         3.267
117.0-TEVATR2          1.012        -17.81         34.67         16.14             1        -5.121
118.0-TEVATR          0.9918        -25.97    -5.116e-13    -3.169e-12         57.61        -9.352
119.0-OLINDA1          1.135        -18.17    -1.784e-14    -2.634e-15             0             0
120.0-OLINDA2          1.076         -25.9     6.482e-15     3.084e-14             0             0
121.0-OLINDA3           1.11        -21.82     5.865e-15     1.465e-14             0             0
122.0-OLINDA4          1.013        -30.79    -1.776e-15    -3.553e-15             0          7.19
123.0-ROUND1           1.097        -18.35     3.699e-15    -1.227e-15             0             0
124.0-ROUND2           1.055        -22.89    -1.274e-14     -1.09e-14             0             0
125.0-ROUND3           1.097        -18.35     3.699e-15    -1.227e-15             0             0
126.0-ROUND4           1.055        -22.89    -1.274e-14     -1.09e-14             0             0
127.0-TABLE1           1.093        -17.38    -1.251e-14     1.205e-14             0             0
128.0-TABLE2          0.9876        -30.88    -3.997e-15     -2.22e-15             0         2.926
129.0-TABLE3           1.103        -18.51    -2.604e-14    -1.608e-14             0             0
130.0-TABLE4          0.9914        -27.77     3.109e-14     3.553e-15             0         4.914
131.0-TEVATR1          1.015        -26.29     1.421e-14     -3.02e-14             0         5.152
132.0-TEVATR2          1.059        -24.06     9.569e-15     1.221e-14             0             0
133.0-TEVATR3          1.101        -26.29    -4.441e-15    -1.066e-14             0          10.9
134.0-GATES1           1.039        -23.57     8.852e-15     2.029e-14             0             0
135.0-DEVERS           1.086        -16.37    -7.105e-15     1.849e-14          8.56         0.196
136.0-EAGLROCK        0.9994        -21.33     5.551e-15    -1.388e-15          1.75          0.18
137.0-ELDORADO          1.02         1.059         9.827        -2.758             1        0.5202
138.0-ELDORADO          1.08         -5.87     1.776e-15     -2.22e-14         9.023         3.609
139.0-LITEHIPE         1.009        -20.26         31.95         10.26             1             0
140.0-LITEHIPE         1.001        -26.55    -1.066e-14      2.22e-14         31.91           6.3
141.0-LUGO             1.055        -18.39     2.176e-14    -2.652e-13         2.042        -0.282
142.0-MESA CAL        0.9976        -25.83    -1.066e-14    -1.554e-15         3.774         0.645
143.0-MIRALOMA         1.009        -17.46          16.9       -0.1397             1             0
144.0-MIRALOMA         1.029        -21.92     7.461e-14             0         30.98         7.655
145.0-MIRALOMA         1.027        -22.24     2.701e-14    -1.104e-14             0             0
146.0-MOHAVE           1.081        -2.125     1.582e-15     1.465e-14             0          2.29
147.0-MOHAV1CC          1.05          6.11          16.8         3.333             1             0
148.0-PARDEE            1.01        -7.679            22         4.563             1             0
149.0-PARDEE          0.9999        -19.84     3.197e-14     2.909e-14         31.18          0.78
150.0-SERRANO          1.042        -22.37    -2.842e-14     2.864e-14          12.3         0.728
151.0-VALLEY           1.063        -20.22     1.243e-14     1.987e-14          4.06          0.41
152.0-VINCENT          1.066        -23.19     6.965e-15    -2.983e-15             0             0
153.0-VINCENT          0.996        -24.61     2.132e-14     3.419e-14         10.66         1.777
154.0-CAMP WIL          1.07         6.943     1.599e-14    -4.841e-14         4.577         1.504
155.0-BENLOMND         1.084         5.295     7.438e-15    -4.322e-14         0.339         0.119
156.0-BENLOMND         1.093         4.725    -6.661e-16      2.15e-14          1.48        -0.079
157.0-EMERY            1.038         12.88    -3.775e-14     4.752e-14         1.161         2.753
158.0-EMERY             1.02         17.79         16.65        -5.669             1             0
159.0-MONA             1.072          7.04    -7.094e-14      5.21e-13         -0.62         0.128
160.0-NAUGHTON         1.111         8.468    -4.441e-16    -6.661e-16         2.599         1.019
161.0-NAUGHT           1.062         10.95          4.45         0.907             1             0
162.0-PINTO PS         1.136         12.29    -1.719e-15     7.886e-15             0             0
163.0-PINTO            1.167         12.01    -8.993e-15     4.619e-14        0.3555        -2.593
164.0-SPAN FRK         1.055         7.849     8.882e-15    -1.732e-14         1.412         0.714
165.0-SIGURD           1.075         7.964     8.882e-15    -7.128e-14          3.79        0.1473
166.0-TERMINAL         1.069          6.85    -2.491e-13    -1.832e-13          1.85         0.785
167.0-MALIN3           1.156        -15.79    -1.014e-14    -5.672e-15             0             0
168.0-MALIN4           1.055        -22.55     1.385e-14    -5.751e-15             0             0
169.0-MALIN5           1.161        -15.36    -1.193e-14     3.278e-15             0             0
170.0-MALIN6           1.056        -22.58     1.386e-14    -5.763e-15             0             0
171.0-MALIN7           1.087        -14.69    -6.772e-15    -1.465e-14             0        -3.547
172.0-MALIN8           1.083        -25.19    -3.664e-15    -2.576e-14             0        -2.348
173.0-MIDWAY1          1.062        -26.11    -1.626e-15    -7.603e-15             0             0
174.0-MIDWAY2          1.053        -21.62    -1.441e-15     1.667e-14             0             0
175.0-MIDWAY3          1.061        -26.14    -3.448e-15     1.009e-14             0             0
176.0-MIDWAY4          1.053        -21.61     1.102e-14     2.782e-14             0             0
177.0-MIDWAY5          1.061        -26.23    -3.233e-15    -2.363e-14             0             0
178.0-MIDWAY6          1.056        -21.68    -4.115e-15    -3.066e-14             0             0
179.0-BURNS2           1.036        -2.302     1.638e-15     5.773e-15             0         2.363
180.0-ADDBUS1              1        -19.95     1.674e-13         6.835             0             0
181.0-ADDBUS2          1.109        -25.96    -1.017e-13        -8.734             0             0
2183.0-NEXMEXIC         1.051         13.51      6.98e-15    -2.905e-14             0             0
2184.0-NEXMEXIC         1.051         13.51    -3.349e-15     2.992e-14             0             0
2185.0-WYOMING1         1.037          7.92    -3.719e-15     6.306e-14             0        -1.612
2186.0-WYOMING2         1.037          7.92    -3.236e-15     -3.02e-14             0             0
2187.0-ALBERTA2         1.042         10.67     1.645e-14    -8.733e-14             0             0
2188.0-MONTANA1         1.045         27.13     5.352e-14    -3.932e-14             0             0
2189.0-WYOMING3         1.037          7.92     3.236e-15      3.02e-14             0             0
2190.0-ALBERTA3         1.042         10.67    -1.455e-14    -2.742e-15             0             0
2191.0-NEXMEXIC         1.051         13.51     -2.15e-14     2.556e-14             0             0
2192.0-MONTANA2         1.045         27.13     1.289e-14     3.998e-14             0             0

NODE DATA:
                       V(pu)

Node COI 0        -4.632e-22
Node Celilo P              1
Node Sylmarla P        0.9996
Node Celilo N              1
Node Sylmarla N             1

LINE DATA:
                    From Bus        To Bus   P From (pu)   Q From (pu)     P To (pu)      Q To(pu)    P Loss(pu)    Q Loss(pu)

Line_0                     2             7         -5.25         -1.68         5.297       -0.5954       0.04657        -2.275
Line_1                     2             7         -5.25         -1.68         5.297       -0.5954       0.04657        -2.275
Line_10                   11            19         3.853        -1.853        -3.853         1.766     1.375e-09      -0.08717
Line_100                  72            74         3.881        -3.722        -2.427         3.745         1.454       0.02339
Line_101                  73            77     9.992e-16        -2.486      0.001615        0.1577      0.001615        -2.328
Line_102                  74            75        -2.072       -0.3877         2.086       -0.5049       0.01414       -0.8927
Line_103                  74            75        -2.072       -0.3877         2.086       -0.5049       0.01414       -0.8927
Line_104                  74            77        -2.997       -0.2842          3.04        0.3956       0.04256        0.1115
Line_105                  74            77        -2.997       -0.2842          3.04        0.3956       0.04256        0.1115
Line_106                  74            77        -2.997       -0.2842          3.04        0.3956       0.04256        0.1115
Line_107                  74            77        -2.997       -0.2842          3.04        0.3956       0.04256        0.1115
Line_108                  75            77        -6.064        -2.317         6.102        0.9041       0.03817        -1.413
Line_109                  75            77        -6.971        -3.917         6.984        0.2604       0.01283        -3.656
Line_11                   11            21         3.335        -2.762        -3.335         2.594      1.41e-09       -0.1675
Line_110                  75            81         2.362        -2.305        -2.358         1.052      0.004317        -1.253
Line_111                  75            81         1.384        -1.903        -1.382        0.0465      0.002568        -1.857
Line_112                  75            81         1.384        -1.901        -1.382       0.04669      0.002542        -1.854
Line_113                  77            79        -13.25         2.813         13.31        -1.319       0.05729         1.495
Line_114                  77            79        -13.25         2.813         13.31        -1.319       0.05729         1.495
Line_115                  77            79        -13.25         2.813         13.31        -1.319       0.05729         1.495
Line_116                  77            79        -13.25         2.813         13.31        -1.319       0.05729         1.495
Line_117                  80            98        -5.165        0.9636         5.306        -1.138        0.1416       -0.1748
Line_118                  80            98        -5.165        0.9636         5.306        -1.138        0.1416       -0.1748
Line_119                  80           179         5.165        -2.339        -5.165        0.9682     2.571e-09        -1.371
Line_12                   11           138         7.724         2.713        -7.574        -2.856        0.1499        -0.143
Line_120                  80           179         5.165        -2.339        -5.165        0.9682     2.571e-09        -1.371
Line_121                  81            86        -1.491        -1.785         1.493        0.8909      0.001307       -0.8946
Line_122                  81            90         3.552        -3.407        -3.541         2.379        0.0108        -1.028
Line_123                  81            94         3.749         -3.39        -3.738         2.375       0.01151        -1.014
Line_124                  82            88        -8.647         2.526         8.695         -3.19       0.04829       -0.6649
Line_125                  82            93        -3.525        -0.458         3.533       -0.8536      0.007608        -1.312
Line_126                  82            97         -3.72       -0.3737         3.728       -0.8384      0.008048        -1.212
Line_127                  82           167         6.374         3.732        -6.374        -4.039     4.257e-09       -0.3065
Line_128                  82           169         6.449         3.627        -6.449        -3.996     4.272e-09       -0.3691
Line_129                  82           171          6.66         -5.23         -6.66          4.67     5.595e-09       -0.5595
Line_13                   13            20        -3.843         0.064         3.843       -0.1342     1.108e-09      -0.07023
Line_130                  83            98         5.306        -2.631        -5.306         1.138     2.798e-09        -1.492
Line_131                  83            98         5.306        -2.631        -5.306         1.138     2.798e-09        -1.492
Line_132                  84           155       -0.6565        -1.049          0.66       -0.1859      0.003461        -1.235
Line_133                  84           155       -0.6565        -1.049          0.66       -0.1859      0.003461        -1.235
Line_134                  85            87         1.494       -0.3932        -1.493       -0.8609      0.001093        -1.254
Line_135                  85            89         8.704        -3.904        -8.695         3.797       0.00858       -0.1075
Line_136                  85           179        -5.099         2.149         5.165         -2.15        0.0661     -0.001178
Line_137                  85           179        -5.099         2.149         5.165         -2.15        0.0661     -0.001178
Line_138                  86            87        -1.493       -0.8909         1.493        0.8609     2.373e-10      -0.02997
Line_139                  88            89        -8.695          3.19         8.695        -3.797     7.065e-09       -0.6062
Line_14                   13            23         3.885         -1.63        -3.885         1.521     1.331e-09       -0.1099
Line_140                  90            91         3.541        -2.379        -3.541         2.205     1.377e-09        -0.174
Line_141                  91            92         3.541        -2.205        -3.533        0.9838        0.0087        -1.222
Line_142                  92            93         3.533       -0.9838        -3.533        0.8536     1.031e-09       -0.1302
Line_143                  94            95         3.738        -2.375        -3.738         2.188     1.485e-09       -0.1875
Line_144                  95            96         3.738        -2.188        -3.728        0.9825       0.00951        -1.205
Line_145                  96            97         3.728       -0.9825        -3.728        0.8384     1.141e-09       -0.1441
Line_146                  99           100       -0.3154        -0.654        0.3246        0.4781      0.009177        -0.176
Line_147                  99           116        0.7484       -0.6196       -0.7364        0.5658       0.01196      -0.05383
Line_148                 100           104        0.6401         1.143       -0.6198        -1.137       0.02026      0.006499
Line_149                 100           105        0.5626      -0.03964       -0.5585       -0.1052      0.004139       -0.1448
Line_15                   13            25         8.464       -0.6706        -8.464       -0.2995     5.405e-09       -0.9702
Line_150                 100           112        -1.411       -0.2394         1.429        0.2488       0.01757      0.009454
Line_151                 100           112        -1.441       -0.2495         1.458         0.267       0.01732        0.0175
Line_152                 100           112        -1.419         -0.24         1.436        0.2517       0.01763        0.0117
Line_153                 100           116        0.5095      -0.03501       -0.5007       -0.2856      0.008707       -0.3206
Line_154                 101           103         2.617         0.152        -2.612         -1.58      0.005139        -1.428
Line_155                 101           107         1.767        0.3488        -1.763        -1.963      0.003364        -1.614
Line_156                 101           107         1.767        0.3488        -1.763        -1.963      0.003364        -1.614
Line_157                 103           106        0.9248        0.4512        -0.924        -0.433     0.0007636       0.01826
Line_158                 103           133        0.5696        -1.632       -0.5687       0.02263     0.0008218        -1.609
Line_159                 103           134        -1.933          1.79         1.939        -2.869      0.005987         -1.08
Line_16                   13            28        -4.253        -1.489         4.253         1.151     1.522e-09       -0.3385
Line_160                 104           116        0.3448       -0.4449       -0.3385        0.2148      0.006337       -0.2301
Line_161                 105           116        0.4752        0.1052       -0.4703        -0.293      0.004874       -0.1878
Line_162                 106           107        -2.126       0.07559         2.132      -0.01681      0.006118       0.05878
Line_163                 106           109        0.4001        0.2174          -0.4        -0.215     9.709e-05      0.002376
Line_164                 107           132        0.7571       -0.5962       -0.7571        0.5853     1.633e-05      -0.01087
Line_165                 107           134         1.939         -2.98        -1.939         2.869     0.0002224        -0.111
Line_166                 107           173        -3.259       -0.5888         3.259        0.4986     9.648e-10      -0.09021
Line_167                 107           175        -3.283       -0.5945         3.283        0.5021     9.793e-10      -0.09244
Line_168                 107           177        -3.505       -0.6082         3.505        0.5042     1.113e-09       -0.1041
Line_169                 110           119         2.141        0.4722        -2.141       -0.6267     3.863e-10       -0.1545
Line_17                   13            28        -4.253        -1.489         4.253         1.151     1.522e-09       -0.3385
Line_170                 110           119         2.141        0.4722        -2.141       -0.6267     3.863e-10       -0.1545
Line_171                 110           119         2.141        0.4722        -2.141       -0.6267     3.863e-10       -0.1545
Line_172                 110           119         2.141        0.4722        -2.141       -0.6267     3.863e-10       -0.1545
Line_173                 110           172        -6.621        -3.766         6.621           3.3     4.662e-09       -0.4662
Line_174                 113           114         8.246         4.222        -8.194        -3.972       0.05212        0.2505
Line_175                 113           123         4.033        0.8389        -4.033       -0.9818     0.0002864       -0.1429
Line_176                 113           125         4.033        0.8389        -4.033       -0.9818     0.0002864       -0.1429
Line_177                 113           168        -6.323        -5.219         6.323         4.811      5.67e-09       -0.4082
Line_178                 113           170        -6.396        -5.055         6.396         4.651     5.606e-09       -0.4036
Line_179                 114           124         -4.01        -2.435          4.01         2.307     0.0001922        -0.128
Line_18                   15            18       -0.2846        -1.549        0.2849        0.3943     0.0003215        -1.155
Line_180                 114           126         -4.01        -2.435          4.01         2.307     0.0001922        -0.128
Line_181                 114           127         7.571         1.943         -7.57         -2.54     0.0005335       -0.5975
Line_182                 114           129          8.65         4.671        -8.649        -5.279     0.0008438       -0.6075
Line_183                 118           122        -4.219        0.8997         4.219        -1.278     1.892e-09       -0.3784
Line_184                 118           122        -4.219        0.8997         4.219        -1.278     1.892e-09       -0.3784
Line_185                 118           128        -7.476       -0.6914         7.477       0.04955     0.0005731       -0.6419
Line_186                 118           130         -8.56       -0.2554         8.561        -0.013     0.0007457       -0.2684
Line_187                 118           131       -0.7552         3.058        0.7553        -3.134     0.0001009      -0.07616
Line_188                 118           133       -0.5677         9.843        0.5687        -10.93     0.0009882        -1.085
Line_189                 119           120         4.282         1.253        -4.257        -1.711       0.02563       -0.4573
Line_19                   15            18       -0.2846        -1.549        0.2849        0.3943     0.0003215        -1.155
Line_190                 119           120         4.282         1.253        -4.257        -1.711       0.02563       -0.4573
Line_191                 120           121         4.257         1.711        -4.257        -2.074     1.818e-09       -0.3637
Line_192                 120           121         4.257         1.711        -4.257        -2.074     1.818e-09       -0.3637
Line_193                 121           122         2.128         1.037        -2.109        -1.158       0.01888       -0.1213
Line_194                 121           122         2.128         1.037        -2.109        -1.158       0.01888       -0.1213
Line_195                 121           122         2.128         1.037        -2.109        -1.158       0.01888       -0.1213
Line_196                 121           122         2.128         1.037        -2.109        -1.158       0.01888       -0.1213
Line_197                 123           124         4.033        0.9818         -4.01        -2.307       0.02299        -1.325
Line_198                 125           126         4.033        0.9818         -4.01        -2.307       0.02299        -1.325
Line_199                 127           128          7.57          2.54        -7.477        -2.976       0.09365       -0.4357
Line_2                     4            16         1.299       -0.7349        -1.266     -0.007744         0.033       -0.7427
Line_20                   15           135          8.78        0.4347        -8.617        -1.211         0.163       -0.7766
Line_200                 129           130         8.649         5.279        -8.561        -4.901       0.08789        0.3773
Line_201                 131           132       -0.7553        -2.018        0.7571       -0.5853      0.001794        -2.603
Line_202                 135           151         8.675         2.227        -8.645        -2.368       0.02924       -0.1416
Line_203                 136           142         3.029      -0.08423        -3.011        0.2232       0.01746        0.1389
Line_204                 136           149       -0.3646      -0.03814        0.3657       -0.1118      0.001139       -0.1499
Line_205                 138           141         8.984        -1.383        -8.848        -1.978        0.1364         -3.36
Line_206                 138           146        -5.377       -0.2653         5.391       -0.6008       0.01393       -0.8661
Line_207                 140           142         -0.48        0.1536        0.4806        -0.171     0.0005665      -0.01742
Line_208                 140           142         -0.48        0.1536        0.4806        -0.171     0.0005665      -0.01742
Line_209                 141           144         9.001         3.286        -8.977        -3.213        0.0236       0.07292
Line_21                   15           135          8.78        0.4347        -8.617        -1.211         0.163       -0.7766
Line_210                 141           144         9.067         3.193        -9.037        -3.157       0.02971       0.03561
Line_211                 141           146        -10.23        -1.093         10.41        -0.674        0.1811        -1.767
Line_212                 141           150         6.012        0.4731        -5.992        -1.086       0.02003       -0.6126
Line_213                 141           152         8.316        -1.513        -8.289          1.29       0.02779       -0.2224
Line_214                 141           152         8.316        -1.513        -8.289          1.29       0.02779       -0.2224
Line_215                 142           145        -1.198       -0.5437           1.2        0.4772      0.002292      -0.06658
Line_216                 142           153       -0.5261       0.01757         0.527       -0.1493     0.0009157       -0.1318
Line_217                 144           150         0.867        -1.576       -0.8658         1.429       0.00118       -0.1471
Line_218                 144           150         0.867        -1.576       -0.8658         1.429       0.00118       -0.1471
Line_219                 149           153         2.274      -0.03934        -2.259         0.102       0.01474       0.06268
Line_22                   18            22        -3.313        -3.126         3.313         2.936     1.601e-09       -0.1902
Line_220                 149           153         2.444       0.06087        -2.435       0.03058      0.008262       0.09144
Line_221                 150           151        -4.576          -2.5         4.585         1.958      0.009385       -0.5415
Line_222                 152           174         3.271        -1.571        -3.271         1.463     1.158e-09       -0.1083
Line_223                 152           176         3.296        -1.567        -3.296         1.457     1.171e-09       -0.1095
Line_224                 152           178         3.518        -1.378        -3.518         1.273     1.255e-09       -0.1054
Line_225                 154           155        0.9692        -0.837       -0.9667        0.1927      0.002496       -0.6443
Line_226                 154           157        -1.837        0.2585         1.856        -1.167        0.0185       -0.9082
Line_227                 154           157        -2.054        0.4414         2.076        -1.184       0.02189       -0.7428
Line_228                 154           159        -1.021       -0.4323         1.022      -0.02382      0.001607       -0.4561
Line_229                 154           159       -0.9179       -0.3318        0.9194       -0.1077      0.001567       -0.4396
Line_23                   18            24        -3.864        -2.456         3.864         2.323     1.618e-09       -0.1336
Line_230                 154           159        -1.021       -0.4323         1.022      -0.02382      0.001607       -0.4561
Line_231                 154           159       -0.9179       -0.3318        0.9194       -0.1077      0.001567       -0.4396
Line_232                 154           164       -0.9689        0.8326        0.9709        -1.141      0.002039       -0.3082
Line_233                 154           166         1.595       -0.3359        -1.594        0.1049      0.001811        -0.231
Line_234                 154           166         1.595       -0.3359        -1.594        0.1049      0.001811        -0.231
Line_235                 155           166        -1.334        0.6003         1.337       -0.9948      0.003346       -0.3945
Line_236                 156           160       -0.4193        -0.236        0.4225       -0.1358      0.003206       -0.3718
Line_237                 156           160       -0.4193        -0.236        0.4225       -0.1358      0.003206       -0.3718
Line_238                 157           159          3.14         -1.46        -3.107         1.186       0.03325       -0.2745
Line_239                 157           163        0.0424        -2.295       -0.0216        0.7466       0.02081        -1.549
Line_24                   19            20         3.853        -1.766        -3.843        0.1342      0.009177        -1.632
Line_240                 157           164         2.402       -0.9198        -2.383        0.4269       0.01924       -0.4929
Line_241                 157           165         2.453        -1.467         -2.43         1.028       0.02306        -0.439
Line_242                 157           165         2.466        -1.473        -2.443         1.038        0.0233       -0.4348
Line_243                 159           165       -0.5466       -0.3363        0.5476        -0.326     0.0009871       -0.6623
Line_244                 159           165       -0.5334        -0.341        0.5342       -0.3098     0.0007921       -0.6507
Line_245                 167           168         6.374         4.039        -6.323        -4.811       0.05128       -0.7724
Line_246                 169           170         6.449         3.996        -6.396        -4.651       0.05308        -0.655
Line_247                 171           172          6.66        -1.123        -6.621        -0.952       0.03888        -2.075
Line_248                 173           174        -3.259       -0.4986         3.271        -1.463       0.01202        -1.961
Line_249                 175           176        -3.283       -0.5021         3.296        -1.457       0.01219        -1.959
Line_25                   21            22         3.335        -2.594        -3.313        -2.936       0.02162         -5.53
Line_250                 177           178        -3.505       -0.5042         3.518        -1.273       0.01249        -1.777
Line_251                   1             2         -10.5        -1.691          10.5         3.359     1.143e-08         1.669
Line_252                   1             3            -7         2.251             7        -1.389     4.978e-09        0.8612
Line_253                   4             5         -9.48        0.2566          9.48         0.827     8.753e-09         1.084
Line_254                   4            10         -19.5         3.797          19.5         1.965     3.841e-08         5.762
Line_255                   6             7        -4.306         1.237         4.306        -1.041     1.776e-09        0.1954
Line_256                   6             7        -4.306         1.237         4.306        -1.041     1.776e-09        0.1954
Line_257                   7             8         -20.6         6.819          20.6        -4.305     4.262e-08         2.515
Line_258                   7             9        0.7011         0.126        -0.701       -0.1196     0.0001286      0.006339
Line_259                   7             9        0.6961        0.1247        -0.696       -0.1184     0.0001313      0.006293
Line_26                   23            24         3.885        -1.521        -3.864        -2.323       0.02132        -3.843
Line_260                  11            12         -15.9        -1.393          15.9         2.882     2.235e-08         1.489
Line_261                  15            14        -25.36        -1.819          25.4         4.887       0.03718         3.067
Line_262                  16            17         -8.62         1.956          8.62        -1.506     7.506e-09        0.4504
Line_263                  30            29         -43.5         -7.78          43.5         10.48     1.798e-07         2.697
Line_264                  31            32        -7.679        -4.751         7.679         5.665     9.134e-09        0.9134
Line_265                  33            34         -43.8        -6.287          43.8         10.17     1.943e-07         3.887
Line_266                  84            35         -15.4        -1.638          15.4         2.635     2.167e-08         0.997
Line_267                  37            47         1.213      -0.03314        -1.213       0.04279     0.0001811      0.009653
Line_268                  38            39       -0.9995         0.236             1       -0.2123     0.0004984       0.02372
Line_269                  41            42        -2.247       -0.5755          2.25        0.7154      0.003201        0.1399
Line_27                   25            26         8.464         1.627        -8.324        -2.947        0.1399         -1.32
Line_270                  43            44         -16.8        -3.475          16.8          4.89     2.721e-08         1.415
Line_271                  47            46      -0.09953       -0.2842           0.1         0.295     0.0004694       0.01079
Line_272                  48            47        0.6135       -0.4755       -0.6133        0.4835     0.0001499      0.007989
Line_273                  51            50         1.155        0.1938        -1.155       -0.1749     0.0007459       0.01885
Line_274                  52            50         1.155        0.1938        -1.155       -0.1749     0.0007459       0.01885
Line_275                  53            50       0.03161       -0.4898      -0.03154        0.4928     6.782e-05      0.003007
Line_276                  53            50       0.03145       -0.4861      -0.03139        0.4891     6.681e-05      0.002984
Line_277                  55            54         1.967         0.772        -1.967       -0.7144     0.0005407       0.05764
Line_278                  55            54         1.967         0.772        -1.967       -0.7144     0.0005407       0.05764
...
Line_WECC_HVDC_1             7          2183     1.428e-08     -0.004198    -3.432e-15     5.522e-11     1.428e-08     -0.004198
Line_WECC_HVDC_10            30          2187    -9.162e-15    -2.172e-10    -7.332e-15     1.085e-10    -1.649e-14    -1.087e-10
Line_WECC_HVDC_11            65          2188    -4.831e-14    -2.186e-10     4.026e-14     1.092e-10    -8.053e-15    -1.094e-10
Line_WECC_HVDC_12           165          2185      0.001209        -1.578    -6.023e-15         1.612      0.001209        0.0341
Line_WECC_HVDC_2             7          2183     1.428e-08     -0.004198    -3.432e-15     5.522e-11     1.428e-08     -0.004198
Line_WECC_HVDC_3             7          2184     1.428e-08     -0.004198    -1.675e-15     1.496e-14     1.428e-08     -0.004198
Line_WECC_HVDC_4             7          2184     1.428e-08     -0.004198    -1.675e-15     1.496e-14     1.428e-08     -0.004198
Line_WECC_HVDC_5          2183          2191     2.431e-14    -1.105e-10     -2.15e-14     2.556e-14      2.81e-15    -1.105e-10
Line_WECC_HVDC_6          2185          2186     6.959e-16    -2.149e-10     -3.48e-16     1.075e-10      3.48e-16    -1.075e-10
Line_WECC_HVDC_7          2186          2189    -2.888e-15    -1.075e-10     3.236e-15      3.02e-14      3.48e-16    -1.075e-10
Line_WECC_HVDC_8          2187          2190      9.23e-15    -1.086e-10    -1.455e-14    -2.742e-15    -5.325e-15    -1.086e-10
Line_WECC_HVDC_9          2188          2192    -2.826e-16    -1.092e-10     1.289e-14     3.998e-14     1.261e-14    -1.092e-10

OTHER ALGEBRAIC VARIABLES:
                            

Vdc Node COI 0            -0
Vdc Node Celilo P             1
Vdc Node Sylmarla P        0.9996
Vdc Node Celilo N             1
Vdc Node Sylmarla N             1
I Ground COI              -0
Q PV 1                -1.389
Q PV 2                 0.827
Q PV 3                -4.305
Q PV 4                 1.965
Q PV 5                 2.882
Q PV 6                 4.887
Q PV 7                -1.506
Q PV 8                 10.48
Q PV 9                 10.17
Q PV 10                2.635
Q PV 11              -0.2122
Q PV 12               0.7154
Q PV 13                 4.89
Q PV 14                0.295
Q PV 15                -2.34
Q PV 16                2.175
Q PV 17                19.01
Q PV 18                1.512
Q PV 19                8.226
Q PV 20              0.01174
Q PV 21                16.14
Q PV 22               -2.758
Q PV 23                10.26
Q PV 24              -0.1397
Q PV 25                3.333
Q PV 26                4.563
Q PV 27               -5.669
Q PV 28                0.907
Q PV 29                6.835
Q PV 30               -8.734
Idc C Celilo P             0
Idc C Sylmarla P             0
Idc RLs Celilo-Sylmarla         -15.55
Q SW 1                 19.83
P SW 1                 65.58
ash VSC Celilo_P        -1.343
vsh VSC Celilo_P         1.159
psh VSC Celilo_P        -16.28
qsh VSC Celilo_P        -5.251
pdc VSC Celilo_P        -15.55
Ish VSC Celilo_P         17.11
ash VSC Sylmarla_P        0.5282
vsh VSC Sylmarla_P         1.279
psh VSC Sylmarla_P            15
qsh VSC Sylmarla_P        -2.371
pdc VSC Sylmarla_P         15.54
Ish VSC Sylmarla_P         14.74
dwdt BusFreq 1             0
dwdt BusFreq 2             0
dwdt BusFreq 3             0
dwdt BusFreq 4             0
dwdt BusFreq 5             0
dwdt BusFreq 6             0
dwdt BusFreq 7             0
dwdt BusFreq 8             0
dwdt BusFreq 9             0
dwdt BusFreq 10             0
dwdt BusFreq 11             0
dwdt BusFreq 12             0
dwdt BusFreq 13             0
dwdt BusFreq 14             0
dwdt BusFreq 15             0
dwdt BusFreq 16             0
dwdt BusFreq 17             0
dwdt BusFreq 18             0
dwdt BusFreq 19             0
dwdt BusFreq 20             0
dwdt BusFreq 21             0
dwdt BusFreq 22             0
dwdt BusFreq 23             0
dwdt BusFreq 24             0
dwdt BusFreq 25             0
dwdt BusFreq 26             0
dwdt BusFreq 27             0
dwdt BusFreq 28             0
dwdt BusFreq 29             0
dwdt BusFreq 30             0
dwdt BusFreq 31             0
dwdt BusFreq 32             0
dwdt BusFreq 33             0
dwdt BusFreq 34             0
dwdt BusFreq 35             0
dwdt BusFreq 36             0
dwdt BusFreq 37             0
dwdt BusFreq 38             0
dwdt BusFreq 39             0
dwdt BusFreq 40             0
dwdt BusFreq 41             0
dwdt BusFreq 42             0
dwdt BusFreq 43             0
dwdt BusFreq 44             0
dwdt BusFreq 45             0
dwdt BusFreq 46             0
dwdt BusFreq 47             0
dwdt BusFreq 48             0
dwdt BusFreq 49             0
dwdt BusFreq 50             0
dwdt BusFreq 51             0
dwdt BusFreq 52             0
dwdt BusFreq 53             0
dwdt BusFreq 54             0
dwdt BusFreq 55             0
dwdt BusFreq 56             0
dwdt BusFreq 57             0
dwdt BusFreq 58             0
dwdt BusFreq 59             0
dwdt BusFreq 60             0
dwdt BusFreq 61             0
dwdt BusFreq 62             0
dwdt BusFreq 63             0
dwdt BusFreq 64             0
dwdt BusFreq 65             0
dwdt BusFreq 66             0
dwdt BusFreq 67             0
dwdt BusFreq 68             0
dwdt BusFreq 69             0
dwdt BusFreq 70             0
dwdt BusFreq 71             0
dwdt BusFreq 72             0
dwdt BusFreq 73             0
dwdt BusFreq 74             0
dwdt BusFreq 75             0
dwdt BusFreq 76             0
dwdt BusFreq 77             0
dwdt BusFreq 78             0
dwdt BusFreq 79             0
dwdt BusFreq 80             0
dwdt BusFreq 81             0
dwdt BusFreq 82             0
dwdt BusFreq 83             0
dwdt BusFreq 84             0
dwdt BusFreq 85             0
dwdt BusFreq 86             0
dwdt BusFreq 87             0
dwdt BusFreq 88             0
dwdt BusFreq 89             0
dwdt BusFreq 90             0
dwdt BusFreq 91             0
dwdt BusFreq 92             0
dwdt BusFreq 93             0
dwdt BusFreq 94             0
dwdt BusFreq 95             0
dwdt BusFreq 96             0
dwdt BusFreq 97             0
dwdt BusFreq 98             0
dwdt BusFreq 99             0
dwdt BusFreq 100             0
dwdt BusFreq 101             0
dwdt BusFreq 102             0
dwdt BusFreq 103             0
dwdt BusFreq 104             0
dwdt BusFreq 105             0
dwdt BusFreq 106             0
dwdt BusFreq 107             0
dwdt BusFreq 108             0
dwdt BusFreq 109             0
dwdt BusFreq 110             0
dwdt BusFreq 111             0
dwdt BusFreq 112             0
dwdt BusFreq 113             0
dwdt BusFreq 114             0
dwdt BusFreq 115             0
dwdt BusFreq 116             0
dwdt BusFreq 117             0
dwdt BusFreq 118             0
dwdt BusFreq 119             0
dwdt BusFreq 120             0
dwdt BusFreq 121             0
dwdt BusFreq 122             0
dwdt BusFreq 123             0
dwdt BusFreq 124             0
dwdt BusFreq 125             0
dwdt BusFreq 126             0
dwdt BusFreq 127             0
dwdt BusFreq 128             0
dwdt BusFreq 129             0
dwdt BusFreq 130             0
dwdt BusFreq 131             0
dwdt BusFreq 132             0
dwdt BusFreq 133             0
dwdt BusFreq 134             0
dwdt BusFreq 135             0
dwdt BusFreq 136             0
dwdt BusFreq 137             0
dwdt BusFreq 138             0
dwdt BusFreq 139             0
dwdt BusFreq 140             0
dwdt BusFreq 141             0
dwdt BusFreq 142             0
dwdt BusFreq 143             0
dwdt BusFreq 144             0
dwdt BusFreq 145             0
dwdt BusFreq 146             0
dwdt BusFreq 147             0
dwdt BusFreq 148             0
dwdt BusFreq 149             0
dwdt BusFreq 150             0
dwdt BusFreq 151             0
dwdt BusFreq 152             0
dwdt BusFreq 153             0
dwdt BusFreq 154             0
dwdt BusFreq 155             0
dwdt BusFreq 156             0
dwdt BusFreq 157             0
dwdt BusFreq 158             0
dwdt BusFreq 159             0
dwdt BusFreq 160             0
dwdt BusFreq 161             0
dwdt BusFreq 162             0
dwdt BusFreq 163             0
dwdt BusFreq 164             0
dwdt BusFreq 165             0
dwdt BusFreq 166             0
dwdt BusFreq 167             0
dwdt BusFreq 168             0
dwdt BusFreq 169             0
dwdt BusFreq 170             0
dwdt BusFreq 171             0
dwdt BusFreq 172             0
dwdt BusFreq 173             0
dwdt BusFreq 174             0
dwdt BusFreq 175             0
dwdt BusFreq 176             0
dwdt BusFreq 177             0
dwdt BusFreq 178             0
dwdt BusFreq 179             0
dwdt BusFreq 180             0
dwdt BusFreq 181             0
dwdt BusFreq 182             0
dwdt BusFreq 183             0
dwdt BusFreq 184             0
dwdt BusFreq 185             0
dwdt BusFreq 186             0
dwdt BusFreq 187             0
dwdt BusFreq 188             0
dwdt BusFreq 189             0
dwdt BusFreq 190             0
dwdt BusFreq 191             0
p Syn6a 1                  8
q Syn6a 1             -1.389
pm Syn6a 1                 8
vf Syn6a 1             1.308
Id Syn6a 1             5.042
Iq Syn6a 1             6.247
vd Syn6a 1            0.7606
vq Syn6a 1            0.6668
psid Syn6a 1          0.6668
psiq Syn6a 1         -0.7606
p Syn6a 2              10.48
q Syn6a 2              0.827
pm Syn6a 2             10.48
vf Syn6a 2             1.678
Id Syn6a 2             8.106
Iq Syn6a 2             6.413
vd Syn6a 2            0.7456
vq Syn6a 2            0.6919
psid Syn6a 2          0.6919
psiq Syn6a 2         -0.7456
p Syn6a 3               21.6
q Syn6a 3             -4.305
pm Syn6a 3              21.6
vf Syn6a 3             1.675
Id Syn6a 3             16.54
Iq Syn6a 3              13.9
vd Syn6a 3            0.8935
vq Syn6a 3            0.4906
psid Syn6a 3          0.4906
psiq Syn6a 3         -0.8935
p Syn6a 4               20.5
q Syn6a 4              1.965
pm Syn6a 4              20.5
vf Syn6a 4             1.608
Id Syn6a 4                16
Iq Syn6a 4             12.97
vd Syn6a 4            0.7132
vq Syn6a 4            0.7009
psid Syn6a 4          0.7009
psiq Syn6a 4         -0.7132
p Syn6a 5               16.9
q Syn6a 5              2.882
pm Syn6a 5              16.9
vf Syn6a 5             1.441
Id Syn6a 5             10.46
Iq Syn6a 5             11.93
vd Syn6a 5            0.5659
vq Syn6a 5            0.9208
psid Syn6a 5          0.9208
psiq Syn6a 5         -0.5659
p Syn6a 6               26.4
q Syn6a 6              4.887
pm Syn6a 6              26.4
vf Syn6a 6             2.096
Id Syn6a 6             22.22
Iq Syn6a 6             13.18
vd Syn6a 6            0.7823
vq Syn6a 6            0.6839
psid Syn6a 6          0.6839
psiq Syn6a 6         -0.7823
p Syn6a 7               9.62
q Syn6a 7             -1.506
pm Syn6a 7              9.62
vf Syn6a 7             1.071
Id Syn6a 7             1.247
Iq Syn6a 7              9.56
vd Syn6a 7            0.2839
vq Syn6a 7            0.9693
psid Syn6a 7          0.9693
psiq Syn6a 7         -0.2839
p Syn6a 8               44.5
q Syn6a 8              10.48
pm Syn6a 8              44.5
vf Syn6a 8             1.167
Id Syn6a 8             17.59
Iq Syn6a 8             39.59
vd Syn6a 8             0.196
vq Syn6a 8             1.037
psid Syn6a 8           1.037
psiq Syn6a 8          -0.196
p Syn6a 9               44.8
q Syn6a 9              10.17
pm Syn6a 9              44.8
vf Syn6a 9             1.374
Id Syn6a 9             30.76
Iq Syn6a 9              32.9
vd Syn6a 9            0.5143
vq Syn6a 9            0.8808
psid Syn6a 9          0.8808
psiq Syn6a 9         -0.5143
p Syn6a 10              16.4
q Syn6a 10             2.635
pm Syn6a 10             16.4
vf Syn6a 10            1.966
Id Syn6a 10            13.11
Iq Syn6a 10            8.551
vd Syn6a 10           0.7856
vq Syn6a 10           0.7135
psid Syn6a 10         0.7135
psiq Syn6a 10        -0.7856
p Syn6a 11                 2
q Syn6a 11           -0.2122
pm Syn6a 11                2
vf Syn6a 11            1.044
Id Syn6a 11           0.2206
Iq Syn6a 11            1.952
vd Syn6a 11           0.2217
vq Syn6a 11           0.9996
psid Syn6a 11         0.9996
psiq Syn6a 11        -0.2217
p Syn6a 12              3.25
q Syn6a 12            0.7154
pm Syn6a 12             3.25
vf Syn6a 12            1.596
Id Syn6a 12            2.571
Iq Syn6a 12            2.087
vd Syn6a 12            0.626
vq Syn6a 12           0.7862
psid Syn6a 12         0.7862
psiq Syn6a 12         -0.626
p Syn6a 13              17.8
q Syn6a 13              4.89
pm Syn6a 13             17.8
vf Syn6a 13            2.271
Id Syn6a 13            15.41
Iq Syn6a 13            8.086
vd Syn6a 13           0.7751
vq Syn6a 13            0.724
psid Syn6a 13          0.724
psiq Syn6a 13        -0.7751
p Syn6a 14               1.1
q Syn6a 14             0.295
pm Syn6a 14              1.1
vf Syn6a 14            1.299
Id Syn6a 14           0.6029
Iq Syn6a 14           0.9457
vd Syn6a 14           0.3055
vq Syn6a 14           0.9684
psid Syn6a 14         0.9684
psiq Syn6a 14        -0.3055
p Syn6a 16             13.01
q Syn6a 16             2.175
pm Syn6a 16            13.01
vf Syn6a 16            1.295
Id Syn6a 16            6.083
Iq Syn6a 16            11.27
vd Syn6a 16           0.3331
vq Syn6a 16           0.9747
psid Syn6a 16         0.9747
psiq Syn6a 16        -0.3331
p Syn6a 17             65.58
q Syn6a 17             19.83
pm Syn6a 17            65.58
vf Syn6a 17             1.44
Id Syn6a 17            41.75
Iq Syn6a 17            50.54
vd Syn6a 17           0.4038
vq Syn6a 17            0.964
psid Syn6a 17          0.964
psiq Syn6a 17        -0.4038
p Syn6a 18              98.6
q Syn6a 18             19.01
pm Syn6a 18             98.6
vf Syn6a 18            1.208
Id Syn6a 18            39.21
Iq Syn6a 18            85.78
vd Syn6a 18           0.2514
vq Syn6a 18            1.035
psid Syn6a 18          1.035
psiq Syn6a 18        -0.2514
p Syn6a 19              7.65
q Syn6a 19             1.512
pm Syn6a 19             7.65
vf Syn6a 19            1.538
Id Syn6a 19            5.454
Iq Syn6a 19            5.032
vd Syn6a 19           0.6194
vq Syn6a 19           0.8488
psid Syn6a 19         0.8488
psiq Syn6a 19        -0.6194
p Syn6a 20             10.57
q Syn6a 20             8.226
pm Syn6a 20            10.57
vf Syn6a 20            2.106
Id Syn6a 20            10.86
Iq Syn6a 20             6.21
vd Syn6a 20           0.4071
...